/*--------------------------------*- C++ -*----------------------------------*\
| =========                 |                                                 |
| \\      /  F ield         | OpenFOAM: The Open Source CFD Toolbox           |
|  \\    /   O peration     | Version:  1.7.0                                 |
|   \\  /    A nd           | Web:      www.OpenFOAM.com                      |
|    \\/     M anipulation  |                                                 |
\*---------------------------------------------------------------------------*/
FoamFile
{
    version     2.0;
    format      ascii;
    class       dictionary;
    location    "constant";
    object      RASProperties;
}
// * * * * * * * * * * * * * * * * * * * * * * * * * * * * * * * * * * * * * //

RASModel        GCEARSM;

turbulence      on;

printCoeffs     on;


GCEARSMCoeffs
{
    Theta   (
                0.1
                0.0
                0.0
                0.0
                0.0
                0.0
                0.0
                0.0
                0.0
                0.0
                0.2
                0.0
                0.0
                0.0
                0.0
                0.0
                0.0
                0.0
                0.0
                0.0
                0.0
                0.0
                0.3
                0.0
                0.0
                0.0
                0.0
                0.0
                0.0
                0.0
                0.0
                0.0
                0.0
                0.0
                0.0
                0.0
                0.0
                0.0
                0.0
                0.0
                0.0
                0.0
                0.0
                0.0
                0.0
                0.0
                0.0
                0.0
                0.0
                0.0
                0.0
                0.0
                0.0
                0.0
                0.0
                0.0
                0.0
                0.0
                0.0
                0.0
                0.0
                0.0
                0.0
                0.0
                0.0
                0.0
                0.0
                0.0
                0.0
                0.0
                0.0
                0.0
                0.0
                0.0
                0.0
                0.0
                0.0
                0.0
                0.0
                0.0
                0.0
                0.0
                0.0
                0.0
            );
}



// ************************************************************************* //
